
#######################################################################
# This is a cif file containing an ISOLATED water molecule for
# test purposes in the qctbx
#######################################################################

data_Water
_cell_length_a                   10
_cell_length_b                   10
_cell_length_c                   10
_cell_angle_alpha                90
_cell_angle_beta                 90
_cell_angle_gamma                90
_cell_volume                     1000

loop_
 _space_group_symop_operation_xyz
 'x, y, z'

loop_
_atom_site_label
_atom_site_type_symbol
_atom_site_fract_x
_atom_site_fract_y
_atom_site_fract_z
H1 H 0.0749368 0 0.0442433
O1 O 0 0 -0.0165351
H2 H -0.0749368 0 0.0442433

#END
